[root]
type=Root
children=system
eventq_index=0
full_system=true
sim_quantum=0
time_sync_enable=false
time_sync_period=100000000000
time_sync_spin_threshold=100000000

[system]
type=ArmSystem
children=acctest bridge cf0 clk_domain cpu cpu_clk_domain cpu_voltage_domain dvfs_handler intrctrl iobus iocache mem_ctrls membus pci_ide realview terminal vncserver voltage_domain
auto_reset_addr=false
boot_loader=
boot_osflags=a
cache_line_size=64
dtb_filename=
eventq_index=0
exit_on_work_items=false
flags_addr=0
gic_cpu_addr=0
have_crypto=false
have_large_asid_64=false
have_lpae=true
have_lse=true
have_pan=true
have_security=false
have_sve=true
have_virtualization=false
highest_el_is_64=false
init_param=0
kernel=/u/sgupta45/gem5-SALAM/benchmarks/scheduler/sw/bin_comb_2/canny_1_deblur_0_gru_0_harris_0_lstm_1_GEDF_D.elf
kernel_addr_check=true
kernel_extras=
kernel_extras_addrs=
load_addr_mask=18446744073709551615
load_offset=0
m5ops_base=0
mem_mode=timing
mem_ranges=2147483648:6442450944
memories=system.acctest.canny_non_max0_spm system.acctest.convolution0_spm system.acctest.convolution1_spm system.acctest.edge_tracking0_spm system.acctest.elem_matrix0_spm system.acctest.elem_matrix1_spm system.acctest.elem_matrix2_spm system.acctest.elem_matrix3_spm system.acctest.grayscale0_spm system.acctest.harris_non_max0_spm system.acctest.isp0_spm system.mem_ctrls system.realview.bootmem
mmap_using_noreserve=false
multi_proc=true
multi_thread=false
num_work_ids=16
phys_addr_range_64=40
readfile=
redirect_paths=
reset_addr=0
semihosting=Null
sve_vl=1
symbolfile=
thermal_components=
thermal_model=Null
work_begin_ckpt_count=0
work_begin_cpu_id_exit=-1
work_begin_exit_count=0
work_cpus_ckpt_count=0
work_end_ckpt_count=0
work_end_exit_count=0
work_item_id=-1
system_port=system.membus.slave[1]

[system.acctest]
type=AccCluster
children=canny_non_max0 canny_non_max0_dma canny_non_max0_spm coherency_bus convolution0 convolution0_dma convolution0_spm convolution1 convolution1_dma convolution1_spm edge_tracking0 edge_tracking0_dma edge_tracking0_spm elem_matrix0 elem_matrix0_dma elem_matrix0_spm elem_matrix1 elem_matrix1_dma elem_matrix1_spm elem_matrix2 elem_matrix2_dma elem_matrix2_spm elem_matrix3 elem_matrix3_dma elem_matrix3_spm grayscale0 grayscale0_dma grayscale0_spm harris_non_max0 harris_non_max0_dma harris_non_max0_spm isp0 isp0_dma isp0_spm local_bus mem2cls
cache_size=32kB
eventq_index=0
external_range_hi_max=4294967295
external_range_hi_min=2147483648
external_range_low_max=788529151
external_range_low_min=0
intrctrl=system.intrctrl
local_range_max=2147483647
local_range_min=788529152
system=system

[system.acctest.canny_non_max0]
type=CommInterface
children=llvm_interface
cache_line_size=64
clk_domain=system.clk_domain
clock_period=1
config_size=0
data_bases=0
default_p_state=UNDEFINED
devicename=canny_non_max0
enable_debug_msgs=false
eventq_index=0
flags_size=1
gic=system.realview.gic
int_num=64
p_state_clk_gate_bins=20
p_state_clk_gate_max=1000000000000
p_state_clk_gate_min=1000
pio_addr=553910311
pio_latency=100000
pio_size=25
power_model=
premap_data=false
reset_spm=true
system=system
local=system.acctest.local_bus.slave[1]
pio=system.acctest.local_bus.master[0]
spm=system.acctest.canny_non_max0_spm.spm_ports[0] system.acctest.canny_non_max0_spm.spm_ports[1] system.acctest.canny_non_max0_spm.spm_ports[2]

[system.acctest.canny_non_max0.llvm_interface]
type=LLVMInterface
children=cycles
FU_GEP=-1
FU_clock_period=1
FU_compare=-1
FU_conversion=-1
FU_counter=-1
FU_fp_dp_adder=-1
FU_fp_dp_divider=-1
FU_fp_dp_multiplier=-1
FU_fp_sp_adder=-1
FU_fp_sp_divider=-1
FU_fp_sp_multiplier=-1
FU_int_adder=-1
FU_int_bit=-1
FU_int_multiplier=-1
FU_int_shifter=-1
FU_pipelined=1
clock_period=1
comm_int=system.acctest.canny_non_max0
cycles=system.acctest.canny_non_max0.llvm_interface.cycles
eventq_index=0
in_file=/u/sgupta45/gem5-SALAM/benchmarks/scheduler/hw/canny_non_max0.ll
lockstep_mode=false
sched_threshold=10000

[system.acctest.canny_non_max0.llvm_interface.cycles]
type=CycleCounts
add=1
addrspacecast=1
alloca=1
and_inst=1
ashr=1
atomicrmw=1
bitcast=1
br=0
call=1
catchpad=1
cmpxchg=1
counter=1
eventq_index=0
extractelement=1
extractvalue=1
fadd=5
fcmp=1
fdiv=16
fence=1
fmul=4
fpext=1
fptosi=1
fptoui=1
fptrunc=1
frem=16
fsub=5
gep=0
icmp=0
indirectbr=1
insertelement=1
insertvalue=1
inttoptr=1
invoke=1
landingpad=1
load=0
lshr=1
mul=1
or_inst=1
phi=0
ptrtoint=1
resume=1
ret=1
sdiv=1
select=1
sext=0
shl=1
shufflevector=1
srem=1
store=0
sub=1
switch_inst=1
trunc=0
udiv=1
uitofp=1
unreachable=1
urem=1
vaarg=1
xor_inst=1
zext=0

[system.acctest.canny_non_max0_dma]
type=NoncoherentDma
buffer_size=1024
clk_domain=system.clk_domain
clock_period=1
default_p_state=UNDEFINED
devicename=noncoherent_dma
eventq_index=0
gic=system.realview.gic
int_num=64
max_pending=8
max_req_size=64
p_state_clk_gate_bins=20
p_state_clk_gate_max=1000000000000
p_state_clk_gate_min=1000
pio_addr=553648135
pio_delay=100000
pio_size=21
power_model=
sid=0
ssid=0
system=system
cluster_dma=system.acctest.local_bus.slave[2]
dma=system.acctest.coherency_bus.slave[0]
pio=system.acctest.local_bus.master[2]

[system.acctest.canny_non_max0_spm]
type=ScratchpadMemory
bandwidth=78.000000
clk_domain=system.clk_domain
conf_table_reported=false
default_p_state=UNDEFINED
eventq_index=0
in_addr_map=true
kvm_map=true
latency=1000
latency_var=0
null=false
p_state_clk_gate_bins=20
p_state_clk_gate_max=1000000000000
p_state_clk_gate_min=1000
power_model=
range=553648160:553910304
read_on_invalid=false
ready_mode=false
reset_on_scratchpad_read=false
write_on_valid=true
port=system.acctest.local_bus.master[1]
spm_ports=system.acctest.canny_non_max0.spm[0] system.acctest.canny_non_max0.spm[1] system.acctest.canny_non_max0.spm[2]

[system.acctest.coherency_bus]
type=CoherentXBar
children=snoop_filter
clk_domain=system.clk_domain
default_p_state=UNDEFINED
eventq_index=0
forward_latency=0
frontend_latency=1
max_outstanding_snoops=512
max_routing_table_size=512
num_req_layers=1
num_resp_layers=1
p_state_clk_gate_bins=20
p_state_clk_gate_max=1000000000000
p_state_clk_gate_min=1000
point_of_coherency=true
point_of_unification=true
power_model=
response_latency=1
snoop_filter=system.acctest.coherency_bus.snoop_filter
snoop_response_latency=4
system=system
use_default_range=false
width=16
master=system.membus.slave[7]
slave=system.acctest.canny_non_max0_dma.dma system.acctest.convolution0_dma.dma system.acctest.convolution1_dma.dma system.acctest.edge_tracking0_dma.dma system.acctest.elem_matrix0_dma.dma system.acctest.elem_matrix1_dma.dma system.acctest.elem_matrix2_dma.dma system.acctest.elem_matrix3_dma.dma system.acctest.grayscale0_dma.dma system.acctest.harris_non_max0_dma.dma system.acctest.isp0_dma.dma

[system.acctest.coherency_bus.snoop_filter]
type=SnoopFilter
eventq_index=0
lookup_latency=1
max_capacity=8388608
system=system

[system.acctest.convolution0]
type=CommInterface
children=llvm_interface
cache_line_size=64
clk_domain=system.clk_domain
clock_period=1
config_size=0
data_bases=0
default_p_state=UNDEFINED
devicename=convolution0
enable_debug_msgs=false
eventq_index=0
flags_size=1
gic=system.realview.gic
int_num=65
p_state_clk_gate_bins=20
p_state_clk_gate_max=1000000000000
p_state_clk_gate_min=1000
pio_addr=570622103
pio_latency=100000
pio_size=57
power_model=
premap_data=false
reset_spm=true
system=system
local=system.acctest.local_bus.slave[3]
pio=system.acctest.local_bus.master[3]
spm=system.acctest.convolution0_spm.spm_ports[0] system.acctest.convolution0_spm.spm_ports[1] system.acctest.convolution0_spm.spm_ports[2]

[system.acctest.convolution0.llvm_interface]
type=LLVMInterface
children=cycles
FU_GEP=-1
FU_clock_period=1
FU_compare=-1
FU_conversion=-1
FU_counter=-1
FU_fp_dp_adder=-1
FU_fp_dp_divider=-1
FU_fp_dp_multiplier=-1
FU_fp_sp_adder=-1
FU_fp_sp_divider=-1
FU_fp_sp_multiplier=-1
FU_int_adder=-1
FU_int_bit=-1
FU_int_multiplier=-1
FU_int_shifter=-1
FU_pipelined=1
clock_period=1
comm_int=system.acctest.convolution0
cycles=system.acctest.convolution0.llvm_interface.cycles
eventq_index=0
in_file=/u/sgupta45/gem5-SALAM/benchmarks/scheduler/hw/convolution0.ll
lockstep_mode=false
sched_threshold=10000

[system.acctest.convolution0.llvm_interface.cycles]
type=CycleCounts
add=1
addrspacecast=1
alloca=1
and_inst=1
ashr=1
atomicrmw=1
bitcast=1
br=0
call=1
catchpad=1
cmpxchg=1
counter=1
eventq_index=0
extractelement=1
extractvalue=1
fadd=5
fcmp=1
fdiv=16
fence=1
fmul=4
fpext=1
fptosi=1
fptoui=1
fptrunc=1
frem=16
fsub=5
gep=0
icmp=0
indirectbr=1
insertelement=1
insertvalue=1
inttoptr=1
invoke=1
landingpad=1
load=0
lshr=1
mul=1
or_inst=1
phi=0
ptrtoint=1
resume=1
ret=1
sdiv=1
select=1
sext=0
shl=1
shufflevector=1
srem=1
store=0
sub=1
switch_inst=1
trunc=0
udiv=1
uitofp=1
unreachable=1
urem=1
vaarg=1
xor_inst=1
zext=0

[system.acctest.convolution0_dma]
type=NoncoherentDma
buffer_size=1024
clk_domain=system.clk_domain
clock_period=1
default_p_state=UNDEFINED
devicename=noncoherent_dma
eventq_index=0
gic=system.realview.gic
int_num=65
max_pending=8
max_req_size=64
p_state_clk_gate_bins=20
p_state_clk_gate_max=1000000000000
p_state_clk_gate_min=1000
pio_addr=570425351
pio_delay=100000
pio_size=21
power_model=
sid=0
ssid=0
system=system
cluster_dma=system.acctest.local_bus.slave[4]
dma=system.acctest.coherency_bus.slave[1]
pio=system.acctest.local_bus.master[5]

[system.acctest.convolution0_spm]
type=ScratchpadMemory
bandwidth=78.000000
clk_domain=system.clk_domain
conf_table_reported=false
default_p_state=UNDEFINED
eventq_index=0
in_addr_map=true
kvm_map=true
latency=1000
latency_var=0
null=false
p_state_clk_gate_bins=20
p_state_clk_gate_max=1000000000000
p_state_clk_gate_min=1000
power_model=
range=570425376:570622084
read_on_invalid=false
ready_mode=false
reset_on_scratchpad_read=false
write_on_valid=true
port=system.acctest.local_bus.master[4]
spm_ports=system.acctest.convolution0.spm[0] system.acctest.convolution0.spm[1] system.acctest.convolution0.spm[2]

[system.acctest.convolution1]
type=CommInterface
children=llvm_interface
cache_line_size=64
clk_domain=system.clk_domain
clock_period=1
config_size=0
data_bases=0
default_p_state=UNDEFINED
devicename=convolution1
enable_debug_msgs=false
eventq_index=0
flags_size=1
gic=system.realview.gic
int_num=66
p_state_clk_gate_bins=20
p_state_clk_gate_max=1000000000000
p_state_clk_gate_min=1000
pio_addr=571670679
pio_latency=100000
pio_size=57
power_model=
premap_data=false
reset_spm=true
system=system
local=system.acctest.local_bus.slave[5]
pio=system.acctest.local_bus.master[6]
spm=system.acctest.convolution1_spm.spm_ports[0] system.acctest.convolution1_spm.spm_ports[1] system.acctest.convolution1_spm.spm_ports[2]

[system.acctest.convolution1.llvm_interface]
type=LLVMInterface
children=cycles
FU_GEP=-1
FU_clock_period=1
FU_compare=-1
FU_conversion=-1
FU_counter=-1
FU_fp_dp_adder=-1
FU_fp_dp_divider=-1
FU_fp_dp_multiplier=-1
FU_fp_sp_adder=-1
FU_fp_sp_divider=-1
FU_fp_sp_multiplier=-1
FU_int_adder=-1
FU_int_bit=-1
FU_int_multiplier=-1
FU_int_shifter=-1
FU_pipelined=1
clock_period=1
comm_int=system.acctest.convolution1
cycles=system.acctest.convolution1.llvm_interface.cycles
eventq_index=0
in_file=/u/sgupta45/gem5-SALAM/benchmarks/scheduler/hw/convolution1.ll
lockstep_mode=false
sched_threshold=10000

[system.acctest.convolution1.llvm_interface.cycles]
type=CycleCounts
add=1
addrspacecast=1
alloca=1
and_inst=1
ashr=1
atomicrmw=1
bitcast=1
br=0
call=1
catchpad=1
cmpxchg=1
counter=1
eventq_index=0
extractelement=1
extractvalue=1
fadd=5
fcmp=1
fdiv=16
fence=1
fmul=4
fpext=1
fptosi=1
fptoui=1
fptrunc=1
frem=16
fsub=5
gep=0
icmp=0
indirectbr=1
insertelement=1
insertvalue=1
inttoptr=1
invoke=1
landingpad=1
load=0
lshr=1
mul=1
or_inst=1
phi=0
ptrtoint=1
resume=1
ret=1
sdiv=1
select=1
sext=0
shl=1
shufflevector=1
srem=1
store=0
sub=1
switch_inst=1
trunc=0
udiv=1
uitofp=1
unreachable=1
urem=1
vaarg=1
xor_inst=1
zext=0

[system.acctest.convolution1_dma]
type=NoncoherentDma
buffer_size=1024
clk_domain=system.clk_domain
clock_period=1
default_p_state=UNDEFINED
devicename=noncoherent_dma
eventq_index=0
gic=system.realview.gic
int_num=66
max_pending=8
max_req_size=64
p_state_clk_gate_bins=20
p_state_clk_gate_max=1000000000000
p_state_clk_gate_min=1000
pio_addr=571473927
pio_delay=100000
pio_size=21
power_model=
sid=0
ssid=0
system=system
cluster_dma=system.acctest.local_bus.slave[6]
dma=system.acctest.coherency_bus.slave[2]
pio=system.acctest.local_bus.master[8]

[system.acctest.convolution1_spm]
type=ScratchpadMemory
bandwidth=78.000000
clk_domain=system.clk_domain
conf_table_reported=false
default_p_state=UNDEFINED
eventq_index=0
in_addr_map=true
kvm_map=true
latency=1000
latency_var=0
null=false
p_state_clk_gate_bins=20
p_state_clk_gate_max=1000000000000
p_state_clk_gate_min=1000
power_model=
range=571473952:571670660
read_on_invalid=false
ready_mode=false
reset_on_scratchpad_read=false
write_on_valid=true
port=system.acctest.local_bus.master[7]
spm_ports=system.acctest.convolution1.spm[0] system.acctest.convolution1.spm[1] system.acctest.convolution1.spm[2]

[system.acctest.edge_tracking0]
type=CommInterface
children=llvm_interface
cache_line_size=64
clk_domain=system.clk_domain
clock_period=1
config_size=0
data_bases=0
default_p_state=UNDEFINED
devicename=edge_tracking0
enable_debug_msgs=false
eventq_index=0
flags_size=1
gic=system.realview.gic
int_num=67
p_state_clk_gate_bins=20
p_state_clk_gate_max=1000000000000
p_state_clk_gate_min=1000
pio_addr=587301031
pio_latency=100000
pio_size=41
power_model=
premap_data=false
reset_spm=true
system=system
local=system.acctest.local_bus.slave[7]
pio=system.acctest.local_bus.master[9]
spm=system.acctest.edge_tracking0_spm.spm_ports[0] system.acctest.edge_tracking0_spm.spm_ports[1]

[system.acctest.edge_tracking0.llvm_interface]
type=LLVMInterface
children=cycles
FU_GEP=-1
FU_clock_period=1
FU_compare=-1
FU_conversion=-1
FU_counter=-1
FU_fp_dp_adder=-1
FU_fp_dp_divider=-1
FU_fp_dp_multiplier=-1
FU_fp_sp_adder=-1
FU_fp_sp_divider=-1
FU_fp_sp_multiplier=-1
FU_int_adder=-1
FU_int_bit=-1
FU_int_multiplier=-1
FU_int_shifter=-1
FU_pipelined=1
clock_period=1
comm_int=system.acctest.edge_tracking0
cycles=system.acctest.edge_tracking0.llvm_interface.cycles
eventq_index=0
in_file=/u/sgupta45/gem5-SALAM/benchmarks/scheduler/hw/edge_tracking0.ll
lockstep_mode=false
sched_threshold=10000

[system.acctest.edge_tracking0.llvm_interface.cycles]
type=CycleCounts
add=1
addrspacecast=1
alloca=1
and_inst=1
ashr=1
atomicrmw=1
bitcast=1
br=0
call=1
catchpad=1
cmpxchg=1
counter=1
eventq_index=0
extractelement=1
extractvalue=1
fadd=5
fcmp=1
fdiv=16
fence=1
fmul=4
fpext=1
fptosi=1
fptoui=1
fptrunc=1
frem=16
fsub=5
gep=0
icmp=0
indirectbr=1
insertelement=1
insertvalue=1
inttoptr=1
invoke=1
landingpad=1
load=0
lshr=1
mul=1
or_inst=1
phi=0
ptrtoint=1
resume=1
ret=1
sdiv=1
select=1
sext=0
shl=1
shufflevector=1
srem=1
store=0
sub=1
switch_inst=1
trunc=0
udiv=1
uitofp=1
unreachable=1
urem=1
vaarg=1
xor_inst=1
zext=0

[system.acctest.edge_tracking0_dma]
type=NoncoherentDma
buffer_size=1024
clk_domain=system.clk_domain
clock_period=1
default_p_state=UNDEFINED
devicename=noncoherent_dma
eventq_index=0
gic=system.realview.gic
int_num=67
max_pending=8
max_req_size=64
p_state_clk_gate_bins=20
p_state_clk_gate_max=1000000000000
p_state_clk_gate_min=1000
pio_addr=587202567
pio_delay=100000
pio_size=21
power_model=
sid=0
ssid=0
system=system
cluster_dma=system.acctest.local_bus.slave[8]
dma=system.acctest.coherency_bus.slave[3]
pio=system.acctest.local_bus.master[11]

[system.acctest.edge_tracking0_spm]
type=ScratchpadMemory
bandwidth=78.000000
clk_domain=system.clk_domain
conf_table_reported=false
default_p_state=UNDEFINED
eventq_index=0
in_addr_map=true
kvm_map=true
latency=1000
latency_var=0
null=false
p_state_clk_gate_bins=20
p_state_clk_gate_max=1000000000000
p_state_clk_gate_min=1000
power_model=
range=587202592:587301024
read_on_invalid=false
ready_mode=false
reset_on_scratchpad_read=false
write_on_valid=true
port=system.acctest.local_bus.master[10]
spm_ports=system.acctest.edge_tracking0.spm[0] system.acctest.edge_tracking0.spm[1]

[system.acctest.elem_matrix0]
type=CommInterface
children=llvm_interface
cache_line_size=64
clk_domain=system.clk_domain
clock_period=1
config_size=0
data_bases=0
default_p_state=UNDEFINED
devicename=elem_matrix0
enable_debug_msgs=false
eventq_index=0
flags_size=1
gic=system.realview.gic
int_num=68
p_state_clk_gate_bins=20
p_state_clk_gate_max=1000000000000
p_state_clk_gate_min=1000
pio_addr=604241959
pio_latency=100000
pio_size=57
power_model=
premap_data=false
reset_spm=true
system=system
local=system.acctest.local_bus.slave[9]
pio=system.acctest.local_bus.master[12]
spm=system.acctest.elem_matrix0_spm.spm_ports[0] system.acctest.elem_matrix0_spm.spm_ports[1] system.acctest.elem_matrix0_spm.spm_ports[2]

[system.acctest.elem_matrix0.llvm_interface]
type=LLVMInterface
children=cycles
FU_GEP=-1
FU_clock_period=1
FU_compare=-1
FU_conversion=-1
FU_counter=-1
FU_fp_dp_adder=-1
FU_fp_dp_divider=-1
FU_fp_dp_multiplier=-1
FU_fp_sp_adder=-1
FU_fp_sp_divider=-1
FU_fp_sp_multiplier=-1
FU_int_adder=-1
FU_int_bit=-1
FU_int_multiplier=-1
FU_int_shifter=-1
FU_pipelined=1
clock_period=1
comm_int=system.acctest.elem_matrix0
cycles=system.acctest.elem_matrix0.llvm_interface.cycles
eventq_index=0
in_file=/u/sgupta45/gem5-SALAM/benchmarks/scheduler/hw/elem_matrix0.ll
lockstep_mode=false
sched_threshold=10000

[system.acctest.elem_matrix0.llvm_interface.cycles]
type=CycleCounts
add=1
addrspacecast=1
alloca=1
and_inst=1
ashr=1
atomicrmw=1
bitcast=1
br=0
call=1
catchpad=1
cmpxchg=1
counter=1
eventq_index=0
extractelement=1
extractvalue=1
fadd=5
fcmp=1
fdiv=16
fence=1
fmul=4
fpext=1
fptosi=1
fptoui=1
fptrunc=1
frem=16
fsub=5
gep=0
icmp=0
indirectbr=1
insertelement=1
insertvalue=1
inttoptr=1
invoke=1
landingpad=1
load=0
lshr=1
mul=1
or_inst=1
phi=0
ptrtoint=1
resume=1
ret=1
sdiv=1
select=1
sext=0
shl=1
shufflevector=1
srem=1
store=0
sub=1
switch_inst=1
trunc=0
udiv=1
uitofp=1
unreachable=1
urem=1
vaarg=1
xor_inst=1
zext=0

[system.acctest.elem_matrix0_dma]
type=NoncoherentDma
buffer_size=1024
clk_domain=system.clk_domain
clock_period=1
default_p_state=UNDEFINED
devicename=noncoherent_dma
eventq_index=0
gic=system.realview.gic
int_num=68
max_pending=8
max_req_size=64
p_state_clk_gate_bins=20
p_state_clk_gate_max=1000000000000
p_state_clk_gate_min=1000
pio_addr=603979783
pio_delay=100000
pio_size=21
power_model=
sid=0
ssid=0
system=system
cluster_dma=system.acctest.local_bus.slave[10]
dma=system.acctest.coherency_bus.slave[4]
pio=system.acctest.local_bus.master[14]

[system.acctest.elem_matrix0_spm]
type=ScratchpadMemory
bandwidth=78.000000
clk_domain=system.clk_domain
conf_table_reported=false
default_p_state=UNDEFINED
eventq_index=0
in_addr_map=true
kvm_map=true
latency=1000
latency_var=0
null=false
p_state_clk_gate_bins=20
p_state_clk_gate_max=1000000000000
p_state_clk_gate_min=1000
power_model=
range=603979808:604241952
read_on_invalid=false
ready_mode=false
reset_on_scratchpad_read=false
write_on_valid=true
port=system.acctest.local_bus.master[13]
spm_ports=system.acctest.elem_matrix0.spm[0] system.acctest.elem_matrix0.spm[1] system.acctest.elem_matrix0.spm[2]

[system.acctest.elem_matrix1]
type=CommInterface
children=llvm_interface
cache_line_size=64
clk_domain=system.clk_domain
clock_period=1
config_size=0
data_bases=0
default_p_state=UNDEFINED
devicename=elem_matrix1
enable_debug_msgs=false
eventq_index=0
flags_size=1
gic=system.realview.gic
int_num=69
p_state_clk_gate_bins=20
p_state_clk_gate_max=1000000000000
p_state_clk_gate_min=1000
pio_addr=605290535
pio_latency=100000
pio_size=57
power_model=
premap_data=false
reset_spm=true
system=system
local=system.acctest.local_bus.slave[11]
pio=system.acctest.local_bus.master[15]
spm=system.acctest.elem_matrix1_spm.spm_ports[0] system.acctest.elem_matrix1_spm.spm_ports[1] system.acctest.elem_matrix1_spm.spm_ports[2]

[system.acctest.elem_matrix1.llvm_interface]
type=LLVMInterface
children=cycles
FU_GEP=-1
FU_clock_period=1
FU_compare=-1
FU_conversion=-1
FU_counter=-1
FU_fp_dp_adder=-1
FU_fp_dp_divider=-1
FU_fp_dp_multiplier=-1
FU_fp_sp_adder=-1
FU_fp_sp_divider=-1
FU_fp_sp_multiplier=-1
FU_int_adder=-1
FU_int_bit=-1
FU_int_multiplier=-1
FU_int_shifter=-1
FU_pipelined=1
clock_period=1
comm_int=system.acctest.elem_matrix1
cycles=system.acctest.elem_matrix1.llvm_interface.cycles
eventq_index=0
in_file=/u/sgupta45/gem5-SALAM/benchmarks/scheduler/hw/elem_matrix1.ll
lockstep_mode=false
sched_threshold=10000

[system.acctest.elem_matrix1.llvm_interface.cycles]
type=CycleCounts
add=1
addrspacecast=1
alloca=1
and_inst=1
ashr=1
atomicrmw=1
bitcast=1
br=0
call=1
catchpad=1
cmpxchg=1
counter=1
eventq_index=0
extractelement=1
extractvalue=1
fadd=5
fcmp=1
fdiv=16
fence=1
fmul=4
fpext=1
fptosi=1
fptoui=1
fptrunc=1
frem=16
fsub=5
gep=0
icmp=0
indirectbr=1
insertelement=1
insertvalue=1
inttoptr=1
invoke=1
landingpad=1
load=0
lshr=1
mul=1
or_inst=1
phi=0
ptrtoint=1
resume=1
ret=1
sdiv=1
select=1
sext=0
shl=1
shufflevector=1
srem=1
store=0
sub=1
switch_inst=1
trunc=0
udiv=1
uitofp=1
unreachable=1
urem=1
vaarg=1
xor_inst=1
zext=0

[system.acctest.elem_matrix1_dma]
type=NoncoherentDma
buffer_size=1024
clk_domain=system.clk_domain
clock_period=1
default_p_state=UNDEFINED
devicename=noncoherent_dma
eventq_index=0
gic=system.realview.gic
int_num=69
max_pending=8
max_req_size=64
p_state_clk_gate_bins=20
p_state_clk_gate_max=1000000000000
p_state_clk_gate_min=1000
pio_addr=605028359
pio_delay=100000
pio_size=21
power_model=
sid=0
ssid=0
system=system
cluster_dma=system.acctest.local_bus.slave[12]
dma=system.acctest.coherency_bus.slave[5]
pio=system.acctest.local_bus.master[17]

[system.acctest.elem_matrix1_spm]
type=ScratchpadMemory
bandwidth=78.000000
clk_domain=system.clk_domain
conf_table_reported=false
default_p_state=UNDEFINED
eventq_index=0
in_addr_map=true
kvm_map=true
latency=1000
latency_var=0
null=false
p_state_clk_gate_bins=20
p_state_clk_gate_max=1000000000000
p_state_clk_gate_min=1000
power_model=
range=605028384:605290528
read_on_invalid=false
ready_mode=false
reset_on_scratchpad_read=false
write_on_valid=true
port=system.acctest.local_bus.master[16]
spm_ports=system.acctest.elem_matrix1.spm[0] system.acctest.elem_matrix1.spm[1] system.acctest.elem_matrix1.spm[2]

[system.acctest.elem_matrix2]
type=CommInterface
children=llvm_interface
cache_line_size=64
clk_domain=system.clk_domain
clock_period=1
config_size=0
data_bases=0
default_p_state=UNDEFINED
devicename=elem_matrix2
enable_debug_msgs=false
eventq_index=0
flags_size=1
gic=system.realview.gic
int_num=70
p_state_clk_gate_bins=20
p_state_clk_gate_max=1000000000000
p_state_clk_gate_min=1000
pio_addr=606339111
pio_latency=100000
pio_size=57
power_model=
premap_data=false
reset_spm=true
system=system
local=system.acctest.local_bus.slave[13]
pio=system.acctest.local_bus.master[18]
spm=system.acctest.elem_matrix2_spm.spm_ports[0] system.acctest.elem_matrix2_spm.spm_ports[1] system.acctest.elem_matrix2_spm.spm_ports[2]

[system.acctest.elem_matrix2.llvm_interface]
type=LLVMInterface
children=cycles
FU_GEP=-1
FU_clock_period=1
FU_compare=-1
FU_conversion=-1
FU_counter=-1
FU_fp_dp_adder=-1
FU_fp_dp_divider=-1
FU_fp_dp_multiplier=-1
FU_fp_sp_adder=-1
FU_fp_sp_divider=-1
FU_fp_sp_multiplier=-1
FU_int_adder=-1
FU_int_bit=-1
FU_int_multiplier=-1
FU_int_shifter=-1
FU_pipelined=1
clock_period=1
comm_int=system.acctest.elem_matrix2
cycles=system.acctest.elem_matrix2.llvm_interface.cycles
eventq_index=0
in_file=/u/sgupta45/gem5-SALAM/benchmarks/scheduler/hw/elem_matrix2.ll
lockstep_mode=false
sched_threshold=10000

[system.acctest.elem_matrix2.llvm_interface.cycles]
type=CycleCounts
add=1
addrspacecast=1
alloca=1
and_inst=1
ashr=1
atomicrmw=1
bitcast=1
br=0
call=1
catchpad=1
cmpxchg=1
counter=1
eventq_index=0
extractelement=1
extractvalue=1
fadd=5
fcmp=1
fdiv=16
fence=1
fmul=4
fpext=1
fptosi=1
fptoui=1
fptrunc=1
frem=16
fsub=5
gep=0
icmp=0
indirectbr=1
insertelement=1
insertvalue=1
inttoptr=1
invoke=1
landingpad=1
load=0
lshr=1
mul=1
or_inst=1
phi=0
ptrtoint=1
resume=1
ret=1
sdiv=1
select=1
sext=0
shl=1
shufflevector=1
srem=1
store=0
sub=1
switch_inst=1
trunc=0
udiv=1
uitofp=1
unreachable=1
urem=1
vaarg=1
xor_inst=1
zext=0

[system.acctest.elem_matrix2_dma]
type=NoncoherentDma
buffer_size=1024
clk_domain=system.clk_domain
clock_period=1
default_p_state=UNDEFINED
devicename=noncoherent_dma
eventq_index=0
gic=system.realview.gic
int_num=70
max_pending=8
max_req_size=64
p_state_clk_gate_bins=20
p_state_clk_gate_max=1000000000000
p_state_clk_gate_min=1000
pio_addr=606076935
pio_delay=100000
pio_size=21
power_model=
sid=0
ssid=0
system=system
cluster_dma=system.acctest.local_bus.slave[14]
dma=system.acctest.coherency_bus.slave[6]
pio=system.acctest.local_bus.master[20]

[system.acctest.elem_matrix2_spm]
type=ScratchpadMemory
bandwidth=78.000000
clk_domain=system.clk_domain
conf_table_reported=false
default_p_state=UNDEFINED
eventq_index=0
in_addr_map=true
kvm_map=true
latency=1000
latency_var=0
null=false
p_state_clk_gate_bins=20
p_state_clk_gate_max=1000000000000
p_state_clk_gate_min=1000
power_model=
range=606076960:606339104
read_on_invalid=false
ready_mode=false
reset_on_scratchpad_read=false
write_on_valid=true
port=system.acctest.local_bus.master[19]
spm_ports=system.acctest.elem_matrix2.spm[0] system.acctest.elem_matrix2.spm[1] system.acctest.elem_matrix2.spm[2]

[system.acctest.elem_matrix3]
type=CommInterface
children=llvm_interface
cache_line_size=64
clk_domain=system.clk_domain
clock_period=1
config_size=0
data_bases=0
default_p_state=UNDEFINED
devicename=elem_matrix3
enable_debug_msgs=false
eventq_index=0
flags_size=1
gic=system.realview.gic
int_num=71
p_state_clk_gate_bins=20
p_state_clk_gate_max=1000000000000
p_state_clk_gate_min=1000
pio_addr=607387687
pio_latency=100000
pio_size=57
power_model=
premap_data=false
reset_spm=true
system=system
local=system.acctest.local_bus.slave[15]
pio=system.acctest.local_bus.master[21]
spm=system.acctest.elem_matrix3_spm.spm_ports[0] system.acctest.elem_matrix3_spm.spm_ports[1] system.acctest.elem_matrix3_spm.spm_ports[2]

[system.acctest.elem_matrix3.llvm_interface]
type=LLVMInterface
children=cycles
FU_GEP=-1
FU_clock_period=1
FU_compare=-1
FU_conversion=-1
FU_counter=-1
FU_fp_dp_adder=-1
FU_fp_dp_divider=-1
FU_fp_dp_multiplier=-1
FU_fp_sp_adder=-1
FU_fp_sp_divider=-1
FU_fp_sp_multiplier=-1
FU_int_adder=-1
FU_int_bit=-1
FU_int_multiplier=-1
FU_int_shifter=-1
FU_pipelined=1
clock_period=1
comm_int=system.acctest.elem_matrix3
cycles=system.acctest.elem_matrix3.llvm_interface.cycles
eventq_index=0
in_file=/u/sgupta45/gem5-SALAM/benchmarks/scheduler/hw/elem_matrix3.ll
lockstep_mode=false
sched_threshold=10000

[system.acctest.elem_matrix3.llvm_interface.cycles]
type=CycleCounts
add=1
addrspacecast=1
alloca=1
and_inst=1
ashr=1
atomicrmw=1
bitcast=1
br=0
call=1
catchpad=1
cmpxchg=1
counter=1
eventq_index=0
extractelement=1
extractvalue=1
fadd=5
fcmp=1
fdiv=16
fence=1
fmul=4
fpext=1
fptosi=1
fptoui=1
fptrunc=1
frem=16
fsub=5
gep=0
icmp=0
indirectbr=1
insertelement=1
insertvalue=1
inttoptr=1
invoke=1
landingpad=1
load=0
lshr=1
mul=1
or_inst=1
phi=0
ptrtoint=1
resume=1
ret=1
sdiv=1
select=1
sext=0
shl=1
shufflevector=1
srem=1
store=0
sub=1
switch_inst=1
trunc=0
udiv=1
uitofp=1
unreachable=1
urem=1
vaarg=1
xor_inst=1
zext=0

[system.acctest.elem_matrix3_dma]
type=NoncoherentDma
buffer_size=1024
clk_domain=system.clk_domain
clock_period=1
default_p_state=UNDEFINED
devicename=noncoherent_dma
eventq_index=0
gic=system.realview.gic
int_num=71
max_pending=8
max_req_size=64
p_state_clk_gate_bins=20
p_state_clk_gate_max=1000000000000
p_state_clk_gate_min=1000
pio_addr=607125511
pio_delay=100000
pio_size=21
power_model=
sid=0
ssid=0
system=system
cluster_dma=system.acctest.local_bus.slave[16]
dma=system.acctest.coherency_bus.slave[7]
pio=system.acctest.local_bus.master[23]

[system.acctest.elem_matrix3_spm]
type=ScratchpadMemory
bandwidth=78.000000
clk_domain=system.clk_domain
conf_table_reported=false
default_p_state=UNDEFINED
eventq_index=0
in_addr_map=true
kvm_map=true
latency=1000
latency_var=0
null=false
p_state_clk_gate_bins=20
p_state_clk_gate_max=1000000000000
p_state_clk_gate_min=1000
power_model=
range=607125536:607387680
read_on_invalid=false
ready_mode=false
reset_on_scratchpad_read=false
write_on_valid=true
port=system.acctest.local_bus.master[22]
spm_ports=system.acctest.elem_matrix3.spm[0] system.acctest.elem_matrix3.spm[1] system.acctest.elem_matrix3.spm[2]

[system.acctest.grayscale0]
type=CommInterface
children=llvm_interface
cache_line_size=64
clk_domain=system.clk_domain
clock_period=1
config_size=0
data_bases=0
default_p_state=UNDEFINED
devicename=grayscale0
enable_debug_msgs=false
eventq_index=0
flags_size=1
gic=system.realview.gic
int_num=72
p_state_clk_gate_bins=20
p_state_clk_gate_max=1000000000000
p_state_clk_gate_min=1000
pio_addr=620937255
pio_latency=100000
pio_size=17
power_model=
premap_data=false
reset_spm=true
system=system
local=system.acctest.local_bus.slave[17]
pio=system.acctest.local_bus.master[24]
spm=system.acctest.grayscale0_spm.spm_ports[0] system.acctest.grayscale0_spm.spm_ports[1] system.acctest.grayscale0_spm.spm_ports[2] system.acctest.grayscale0_spm.spm_ports[3] system.acctest.grayscale0_spm.spm_ports[4]

[system.acctest.grayscale0.llvm_interface]
type=LLVMInterface
children=cycles
FU_GEP=-1
FU_clock_period=1
FU_compare=-1
FU_conversion=-1
FU_counter=-1
FU_fp_dp_adder=-1
FU_fp_dp_divider=-1
FU_fp_dp_multiplier=-1
FU_fp_sp_adder=-1
FU_fp_sp_divider=-1
FU_fp_sp_multiplier=-1
FU_int_adder=-1
FU_int_bit=-1
FU_int_multiplier=-1
FU_int_shifter=-1
FU_pipelined=1
clock_period=1
comm_int=system.acctest.grayscale0
cycles=system.acctest.grayscale0.llvm_interface.cycles
eventq_index=0
in_file=/u/sgupta45/gem5-SALAM/benchmarks/scheduler/hw/grayscale0.ll
lockstep_mode=false
sched_threshold=10000

[system.acctest.grayscale0.llvm_interface.cycles]
type=CycleCounts
add=1
addrspacecast=1
alloca=1
and_inst=1
ashr=1