[root]
type=Root
children=system
eventq_index=0
full_system=false
sim_quantum=0
time_sync_enable=false
time_sync_period=100000000000
time_sync_spin_threshold=100000000

[system]
type=System
children=clk_domain cpu_cluster dvfs_handler mem_ctrls membus voltage_domain
boot_osflags=a
cache_line_size=64
eventq_index=0
exit_on_work_items=false
init_param=0
kernel=
kernel_addr_check=true
kernel_extras=
kernel_extras_addrs=
load_addr_mask=18446744073709551615
load_offset=0
mem_mode=timing
mem_ranges=0:4294967296
memories=system.mem_ctrls
mmap_using_noreserve=false
multi_thread=false
num_work_ids=16
readfile=
redirect_paths=
symbolfile=
thermal_components=
thermal_model=Null
work_begin_ckpt_count=0
work_begin_cpu_id_exit=-1
work_begin_exit_count=0
work_cpus_ckpt_count=0
work_end_ckpt_count=0
work_end_exit_count=0
work_item_id=-1
system_port=system.membus.slave[0]

[system.clk_domain]
type=SrcClockDomain
clock=1000
domain_id=-1
eventq_index=0
init_perf_level=0
voltage_domain=system.voltage_domain

[system.cpu_cluster]
type=SubSystem
children=clk_domain cpus voltage_domain
eventq_index=0
thermal_domain=Null

[system.cpu_cluster.clk_domain]
type=SrcClockDomain
clock=357
domain_id=-1
eventq_index=0
init_perf_level=0
voltage_domain=system.cpu_cluster.voltage_domain

[system.cpu_cluster.cpus]
type=MinorCPU
children=branchPred dcache dtb executeFuncUnits icache interrupts isa itb tracer workload
branchPred=system.cpu_cluster.cpus.branchPred
checker=Null
clk_domain=system.cpu_cluster.clk_domain
cpu_id=0
decodeCycleInput=true
decodeInputBufferSize=3
decodeInputWidth=2
decodeToExecuteForwardDelay=1
default_p_state=UNDEFINED
do_checkpoint_insts=true
do_quiesce=true
do_statistics_insts=true
dtb=system.cpu_cluster.cpus.dtb
enableIdling=true
eventq_index=0
executeAllowEarlyMemoryIssue=true
executeBranchDelay=1
executeCommitLimit=2
executeCycleInput=true
executeFuncUnits=system.cpu_cluster.cpus.executeFuncUnits
executeInputBufferSize=7
executeInputWidth=2
executeIssueLimit=2
executeLSQMaxStoreBufferStoresPerCycle=2
executeLSQRequestsQueueSize=1
executeLSQStoreBufferSize=5
executeLSQTransfersQueueSize=2
executeMaxAccessesInMemory=2
executeMemoryCommitLimit=1
executeMemoryIssueLimit=1
executeMemoryWidth=0
executeSetTraceTimeOnCommit=true
executeSetTraceTimeOnIssue=false
fetch1FetchLimit=1
fetch1LineSnapWidth=0
fetch1LineWidth=0
fetch1ToFetch2BackwardDelay=1
fetch1ToFetch2ForwardDelay=1
fetch2CycleInput=true
fetch2InputBufferSize=2
fetch2ToDecodeForwardDelay=1
function_trace=false
function_trace_start=0
interrupts=system.cpu_cluster.cpus.interrupts
isa=system.cpu_cluster.cpus.isa
itb=system.cpu_cluster.cpus.itb
max_insts_all_threads=0
max_insts_any_thread=0
numThreads=1
p_state_clk_gate_bins=20
p_state_clk_gate_max=1000000000000
p_state_clk_gate_min=1000
power_gating_on_idle=false
power_model=
profile=0
progress_interval=0
pwr_gating_latency=300
simpoint_start_insts=
socket_id=0
switched_out=false
syscallRetryLatency=10000
system=system
threadPolicy=RoundRobin
tracer=system.cpu_cluster.cpus.tracer
wait_for_remote_gdb=false
workload=system.cpu_cluster.cpus.workload
dcache_port=system.cpu_cluster.cpus.dcache.cpu_side
icache_port=system.cpu_cluster.cpus.icache.cpu_side

[system.cpu_cluster.cpus.branchPred]
type=TournamentBP
children=indirectBranchPred
BTBEntries=4096
BTBTagSize=16
RASSize=16
choiceCtrBits=2
choicePredictorSize=8192
eventq_index=0
globalCtrBits=2
globalPredictorSize=8192
indirectBranchPred=system.cpu_cluster.cpus.branchPred.indirectBranchPred
instShiftAmt=2
localCtrBits=2
localHistoryTableSize=2048
localPredictorSize=2048
numThreads=1

[system.cpu_cluster.cpus.branchPred.indirectBranchPred]
type=SimpleIndirectPredictor
eventq_index=0
indirectGHRBits=13
indirectHashGHR=true
indirectHashTargets=true
indirectPathLength=3
indirectSets=256
indirectTagSize=16
indirectWays=2
instShiftAmt=2
numThreads=1

[system.cpu_cluster.cpus.dcache]
type=Cache
children=replacement_policy tags
addr_ranges=0:18446744073709551615
assoc=4
clk_domain=system.cpu_cluster.clk_domain
clusivity=mostly_incl
compressor=Null
data_latency=2
default_p_state=UNDEFINED
demand_mshr_reserve=1
eventq_index=0
is_read_only=false
max_miss_count=0
mshrs=4
p_state_clk_gate_bins=20
p_state_clk_gate_max=1000000000000
p_state_clk_gate_min=1000
power_model=
prefetch_on_access=false
prefetcher=Null
replacement_policy=system.cpu_cluster.cpus.dcache.replacement_policy
response_latency=2
sequential_access=false
size=32768
system=system
tag_latency=2
tags=system.cpu_cluster.cpus.dcache.tags
tgts_per_mshr=8
warmup_percentage=0
write_allocator=Null
write_buffers=4
writeback_clean=false
cpu_side=system.cpu_cluster.cpus.dcache_port
mem_side=system.membus.slave[2]

[system.cpu_cluster.cpus.dcache.replacement_policy]
type=LRURP
eventq_index=0

[system.cpu_cluster.cpus.dcache.tags]
type=BaseSetAssoc
children=indexing_policy
assoc=4
block_size=64
clk_domain=system.cpu_cluster.clk_domain
default_p_state=UNDEFINED
entry_size=64
eventq_index=0
indexing_policy=system.cpu_cluster.cpus.dcache.tags.indexing_policy
p_state_clk_gate_bins=20
p_state_clk_gate_max=1000000000000
p_state_clk_gate_min=1000
power_model=
replacement_policy=system.cpu_cluster.cpus.dcache.replacement_policy
sequential_access=false
size=32768
system=system
tag_latency=2
warmup_percentage=0

[system.cpu_cluster.cpus.dcache.tags.indexing_policy]
type=SetAssociative
assoc=4
entry_size=64
eventq_index=0
size=32768

[system.cpu_cluster.cpus.dtb]
type=ArmTLB
children=stage2_mmu walker
eventq_index=0
is_stage2=false
size=64
sys=system
walker=system.cpu_cluster.cpus.dtb.walker

[system.cpu_cluster.cpus.dtb.stage2_mmu]
type=ArmStage2MMU
children=stage2_tlb
eventq_index=0
stage2_tlb=system.cpu_cluster.cpus.dtb.stage2_mmu.stage2_tlb
sys=system
tlb=system.cpu_cluster.cpus.dtb

[system.cpu_cluster.cpus.dtb.stage2_mmu.stage2_tlb]
type=ArmTLB
children=walker
eventq_index=0
is_stage2=true
size=32
sys=system
walker=system.cpu_cluster.cpus.dtb.stage2_mmu.stage2_tlb.walker

[system.cpu_cluster.cpus.dtb.stage2_mmu.stage2_tlb.walker]
type=ArmTableWalker
clk_domain=system.cpu_cluster.clk_domain
default_p_state=UNDEFINED
eventq_index=0
is_stage2=true
num_squash_per_cycle=2
p_state_clk_gate_bins=20
p_state_clk_gate_max=1000000000000
p_state_clk_gate_min=1000
power_model=
sys=system

[system.cpu_cluster.cpus.dtb.walker]
type=ArmTableWalker
clk_domain=system.cpu_cluster.clk_domain
default_p_state=UNDEFINED
eventq_index=0
is_stage2=false
num_squash_per_cycle=2
p_state_clk_gate_bins=20
p_state_clk_gate_max=1000000000000
p_state_clk_gate_min=1000
power_model=
sys=system
port=system.membus.slave[4]

[system.cpu_cluster.cpus.executeFuncUnits]
type=MinorFUPool
children=funcUnits0 funcUnits1 funcUnits2 funcUnits3 funcUnits4 funcUnits5 funcUnits6
eventq_index=0
funcUnits=system.cpu_cluster.cpus.executeFuncUnits.funcUnits0 system.cpu_cluster.cpus.executeFuncUnits.funcUnits1 system.cpu_cluster.cpus.executeFuncUnits.funcUnits2 system.cpu_cluster.cpus.executeFuncUnits.funcUnits3 system.cpu_cluster.cpus.executeFuncUnits.funcUnits4 system.cpu_cluster.cpus.executeFuncUnits.funcUnits5 system.cpu_cluster.cpus.executeFuncUnits.funcUnits6

[system.cpu_cluster.cpus.executeFuncUnits.funcUnits0]
type=MinorFU
children=opClasses opList timings
cantForwardFromFUIndices=
eventq_index=0
issueLat=1
opClasses=system.cpu_cluster.cpus.executeFuncUnits.funcUnits0.opClasses
opLat=3
timings=system.cpu_cluster.cpus.executeFuncUnits.funcUnits0.timings

[system.cpu_cluster.cpus.executeFuncUnits.funcUnits0.opClasses]
type=MinorOpClassSet
children=opClasses
eventq_index=0
opClasses=system.cpu_cluster.cpus.executeFuncUnits.funcUnits0.opClasses.opClasses

[system.cpu_cluster.cpus.executeFuncUnits.funcUnits0.opClasses.opClasses]
type=MinorOpClass
eventq_index=0
opClass=IntAlu

[system.cpu_cluster.cpus.executeFuncUnits.funcUnits0.opList]
type=OpDesc
eventq_index=0
opClass=IntAlu
opLat=4
pipelined=true

[system.cpu_cluster.cpus.executeFuncUnits.funcUnits0.timings]
type=MinorFUTiming
children=opClasses
description=Int
eventq_index=0
extraAssumedLat=0
extraCommitLat=0
extraCommitLatExpr=Null
mask=0
match=0
opClasses=system.cpu_cluster.cpus.executeFuncUnits.funcUnits0.timings.opClasses
srcRegsRelativeLats=2
suppress=false

[system.cpu_cluster.cpus.executeFuncUnits.funcUnits0.timings.opClasses]
type=MinorOpClassSet
eventq_index=0
opClasses=

[system.cpu_cluster.cpus.executeFuncUnits.funcUnits1]
type=MinorFU
children=opClasses opList timings
cantForwardFromFUIndices=
eventq_index=0
issueLat=1
opClasses=system.cpu_cluster.cpus.executeFuncUnits.funcUnits1.opClasses
opLat=3
timings=system.cpu_cluster.cpus.executeFuncUnits.funcUnits1.timings

[system.cpu_cluster.cpus.executeFuncUnits.funcUnits1.opClasses]
type=MinorOpClassSet
children=opClasses
eventq_index=0
opClasses=system.cpu_cluster.cpus.executeFuncUnits.funcUnits1.opClasses.opClasses

[system.cpu_cluster.cpus.executeFuncUnits.funcUnits1.opClasses.opClasses]
type=MinorOpClass
eventq_index=0
opClass=IntAlu

[system.cpu_cluster.cpus.executeFuncUnits.funcUnits1.opList]
type=OpDesc
eventq_index=0
opClass=IntAlu
opLat=4
pipelined=true

[system.cpu_cluster.cpus.executeFuncUnits.funcUnits1.timings]
type=MinorFUTiming
children=opClasses
description=Int
eventq_index=0
extraAssumedLat=0
extraCommitLat=0
extraCommitLatExpr=Null
mask=0
match=0
opClasses=system.cpu_cluster.cpus.executeFuncUnits.funcUnits1.timings.opClasses
srcRegsRelativeLats=2
suppress=false

[system.cpu_cluster.cpus.executeFuncUnits.funcUnits1.timings.opClasses]
type=MinorOpClassSet
eventq_index=0
opClasses=

[system.cpu_cluster.cpus.executeFuncUnits.funcUnits2]
type=MinorFU
children=opClasses opList timings
cantForwardFromFUIndices=
eventq_index=0
issueLat=1
opClasses=system.cpu_cluster.cpus.executeFuncUnits.funcUnits2.opClasses
opLat=3
timings=system.cpu_cluster.cpus.executeFuncUnits.funcUnits2.timings

[system.cpu_cluster.cpus.executeFuncUnits.funcUnits2.opClasses]
type=MinorOpClassSet
children=opClasses
eventq_index=0
opClasses=system.cpu_cluster.cpus.executeFuncUnits.funcUnits2.opClasses.opClasses

[system.cpu_cluster.cpus.executeFuncUnits.funcUnits2.opClasses.opClasses]
type=MinorOpClass
eventq_index=0
opClass=IntMult

[system.cpu_cluster.cpus.executeFuncUnits.funcUnits2.opList]
type=OpDesc
eventq_index=0
opClass=IntMult
opLat=7
pipelined=true

[system.cpu_cluster.cpus.executeFuncUnits.funcUnits2.timings]
type=MinorFUTiming
children=opClasses
description=Mul
eventq_index=0
extraAssumedLat=0
extraCommitLat=0
extraCommitLatExpr=Null
mask=0
match=0
opClasses=system.cpu_cluster.cpus.executeFuncUnits.funcUnits2.timings.opClasses
srcRegsRelativeLats=0
suppress=false

[system.cpu_cluster.cpus.executeFuncUnits.funcUnits2.timings.opClasses]
type=MinorOpClassSet
eventq_index=0
opClasses=

[system.cpu_cluster.cpus.executeFuncUnits.funcUnits3]
type=MinorFU
children=opClasses opList
cantForwardFromFUIndices=
eventq_index=0
issueLat=9
opClasses=system.cpu_cluster.cpus.executeFuncUnits.funcUnits3.opClasses
opLat=9
timings=

[system.cpu_cluster.cpus.executeFuncUnits.funcUnits3.opClasses]
type=MinorOpClassSet
children=opClasses
eventq_index=0
opClasses=system.cpu_cluster.cpus.executeFuncUnits.funcUnits3.opClasses.opClasses

[system.cpu_cluster.cpus.executeFuncUnits.funcUnits3.opClasses.opClasses]
type=MinorOpClass
eventq_index=0
opClass=IntDiv

[system.cpu_cluster.cpus.executeFuncUnits.funcUnits3.opList]
type=OpDesc
eventq_index=0
opClass=IntDiv
opLat=9
pipelined=true

[system.cpu_cluster.cpus.executeFuncUnits.funcUnits4]
type=MinorFU
children=opClasses opList0 opList1 opList2 opList3 opList4 opList5 timings
cantForwardFromFUIndices=
eventq_index=0
issueLat=1
opClasses=system.cpu_cluster.cpus.executeFuncUnits.funcUnits4.opClasses
opLat=6
timings=system.cpu_cluster.cpus.executeFuncUnits.funcUnits4.timings

[system.cpu_cluster.cpus.executeFuncUnits.funcUnits4.opClasses]
type=MinorOpClassSet
children=opClasses00 opClasses01 opClasses02 opClasses03 opClasses04 opClasses05 opClasses06 opClasses07 opClasses08 opClasses09 opClasses10 opClasses11 opClasses12 opClasses13 opClasses14 opClasses15 opClasses16 opClasses17 opClasses18 opClasses19 opClasses20 opClasses21 opClasses22 opClasses23 opClasses24 opClasses25 opClasses26 opClasses27 opClasses28 opClasses29 opClasses30 opClasses31 opClasses32 opClasses33 opClasses34 opClasses35 opClasses36 opClasses37 opClasses38 opClasses39 opClasses40 opClasses41
eventq_index=0
opClasses=system.cpu_cluster.cpus.executeFuncUnits.funcUnits4.opClasses.opClasses00 system.cpu_cluster.cpus.executeFuncUnits.funcUnits4.opClasses.opClasses01 system.cpu_cluster.cpus.executeFuncUnits.funcUnits4.opClasses.opClasses02 system.cpu_cluster.cpus.executeFuncUnits.funcUnits4.opClasses.opClasses03 system.cpu_cluster.cpus.executeFuncUnits.funcUnits4.opClasses.opClasses04 system.cpu_cluster.cpus.executeFuncUnits.funcUnits4.opClasses.opClasses05 system.cpu_cluster.cpus.executeFuncUnits.funcUnits4.opClasses.opClasses06 system.cpu_cluster.cpus.executeFuncUnits.funcUnits4.opClasses.opClasses07 system.cpu_cluster.cpus.executeFuncUnits.funcUnits4.opClasses.opClasses08 system.cpu_cluster.cpus.executeFuncUnits.funcUnits4.opClasses.opClasses09 system.cpu_cluster.cpus.executeFuncUnits.funcUnits4.opClasses.opClasses10 system.cpu_cluster.cpus.executeFuncUnits.funcUnits4.opClasses.opClasses11 system.cpu_cluster.cpus.executeFuncUnits.funcUnits4.opClasses.opClasses12 system.cpu_cluster.cpus.executeFuncUnits.funcUnits4.opClasses.opClasses13 system.cpu_cluster.cpus.executeFuncUnits.funcUnits4.opClasses.opClasses14 system.cpu_cluster.cpus.executeFuncUnits.funcUnits4.opClasses.opClasses15 system.cpu_cluster.cpus.executeFuncUnits.funcUnits4.opClasses.opClasses16 system.cpu_cluster.cpus.executeFuncUnits.funcUnits4.opClasses.opClasses17 system.cpu_cluster.cpus.executeFuncUnits.funcUnits4.opClasses.opClasses18 system.cpu_cluster.cpus.executeFuncUnits.funcUnits4.opClasses.opClasses19 system.cpu_cluster.cpus.executeFuncUnits.funcUnits4.opClasses.opClasses20 system.cpu_cluster.cpus.executeFuncUnits.funcUnits4.opClasses.opClasses21 system.cpu_cluster.cpus.executeFuncUnits.funcUnits4.opClasses.opClasses22 system.cpu_cluster.cpus.executeFuncUnits.funcUnits4.opClasses.opClasses23 system.cpu_cluster.cpus.executeFuncUnits.funcUnits4.opClasses.opClasses24 system.cpu_cluster.cpus.executeFuncUnits.funcUnits4.opClasses.opClasses25 system.cpu_cluster.cpus.executeFuncUnits.funcUnits4.opClasses.opClasses26 system.cpu_cluster.cpus.executeFuncUnits.funcUnits4.opClasses.opClasses27 system.cpu_cluster.cpus.executeFuncUnits.funcUnits4.opClasses.opClasses28 system.cpu_cluster.cpus.executeFuncUnits.funcUnits4.opClasses.opClasses29 system.cpu_cluster.cpus.executeFuncUnits.funcUnits4.opClasses.opClasses30 system.cpu_cluster.cpus.executeFuncUnits.funcUnits4.opClasses.opClasses31 system.cpu_cluster.cpus.executeFuncUnits.funcUnits4.opClasses.opClasses32 system.cpu_cluster.cpus.executeFuncUnits.funcUnits4.opClasses.opClasses33 system.cpu_cluster.cpus.executeFuncUnits.funcUnits4.opClasses.opClasses34 system.cpu_cluster.cpus.executeFuncUnits.funcUnits4.opClasses.opClasses35 system.cpu_cluster.cpus.executeFuncUnits.funcUnits4.opClasses.opClasses36 system.cpu_cluster.cpus.executeFuncUnits.funcUnits4.opClasses.opClasses37 system.cpu_cluster.cpus.executeFuncUnits.funcUnits4.opClasses.opClasses38 system.cpu_cluster.cpus.executeFuncUnits.funcUnits4.opClasses.opClasses39 system.cpu_cluster.cpus.executeFuncUnits.funcUnits4.opClasses.opClasses40 system.cpu_cluster.cpus.executeFuncUnits.funcUnits4.opClasses.opClasses41

[system.cpu_cluster.cpus.executeFuncUnits.funcUnits4.opClasses.opClasses00]
type=MinorOpClass
eventq_index=0
opClass=FloatAdd

[system.cpu_cluster.cpus.executeFuncUnits.funcUnits4.opClasses.opClasses01]
type=MinorOpClass
eventq_index=0
opClass=FloatCmp

[system.cpu_cluster.cpus.executeFuncUnits.funcUnits4.opClasses.opClasses02]
type=MinorOpClass
eventq_index=0
opClass=FloatCvt

[system.cpu_cluster.cpus.executeFuncUnits.funcUnits4.opClasses.opClasses03]
type=MinorOpClass
eventq_index=0
opClass=FloatMisc

[system.cpu_cluster.cpus.executeFuncUnits.funcUnits4.opClasses.opClasses04]
type=MinorOpClass
eventq_index=0
opClass=FloatMult

[system.cpu_cluster.cpus.executeFuncUnits.funcUnits4.opClasses.opClasses05]
type=MinorOpClass
eventq_index=0
opClass=FloatMultAcc

[system.cpu_cluster.cpus.executeFuncUnits.funcUnits4.opClasses.opClasses06]
type=MinorOpClass
eventq_index=0
opClass=FloatDiv

[system.cpu_cluster.cpus.executeFuncUnits.funcUnits4.opClasses.opClasses07]
type=MinorOpClass
eventq_index=0
opClass=FloatSqrt

[system.cpu_cluster.cpus.executeFuncUnits.funcUnits4.opClasses.opClasses08]
type=MinorOpClass
eventq_index=0
opClass=SimdAdd

[system.cpu_cluster.cpus.executeFuncUnits.funcUnits4.opClasses.opClasses09]
type=MinorOpClass
eventq_index=0
opClass=SimdAddAcc

[system.cpu_cluster.cpus.executeFuncUnits.funcUnits4.opClasses.opClasses10]
type=MinorOpClass
eventq_index=0
opClass=SimdAlu

[system.cpu_cluster.cpus.executeFuncUnits.funcUnits4.opClasses.opClasses11]
type=MinorOpClass
eventq_index=0
opClass=SimdCmp

[system.cpu_cluster.cpus.executeFuncUnits.funcUnits4.opClasses.opClasses12]
type=MinorOpClass
eventq_index=0
opClass=SimdCvt

[system.cpu_cluster.cpus.executeFuncUnits.funcUnits4.opClasses.opClasses13]
type=MinorOpClass
eventq_index=0
opClass=SimdMisc

[system.cpu_cluster.cpus.executeFuncUnits.funcUnits4.opClasses.opClasses14]
type=MinorOpClass
eventq_index=0
opClass=SimdMult

[system.cpu_cluster.cpus.executeFuncUnits.funcUnits4.opClasses.opClasses15]
type=MinorOpClass
eventq_index=0
opClass=SimdMultAcc

[system.cpu_cluster.cpus.executeFuncUnits.funcUnits4.opClasses.opClasses16]
type=MinorOpClass
eventq_index=0
opClass=SimdShift

[system.cpu_cluster.cpus.executeFuncUnits.funcUnits4.opClasses.opClasses17]
type=MinorOpClass
eventq_index=0
opClass=SimdShiftAcc

[system.cpu_cluster.cpus.executeFuncUnits.funcUnits4.opClasses.opClasses18]
type=MinorOpClass
eventq_index=0
opClass=SimdDiv

[system.cpu_cluster.cpus.executeFuncUnits.funcUnits4.opClasses.opClasses19]
type=MinorOpClass
eventq_index=0
opClass=SimdSqrt

[system.cpu_cluster.cpus.executeFuncUnits.funcUnits4.opClasses.opClasses20]
type=MinorOpClass
eventq_index=0
opClass=SimdFloatAdd

[system.cpu_cluster.cpus.executeFuncUnits.funcUnits4.opClasses.opClasses21]
type=MinorOpClass
eventq_index=0
opClass=SimdFloatAlu

[system.cpu_cluster.cpus.executeFuncUnits.funcUnits4.opClasses.opClasses22]
type=MinorOpClass
eventq_index=0
opClass=SimdFloatCmp

[system.cpu_cluster.cpus.executeFuncUnits.funcUnits4.opClasses.opClasses23]
type=MinorOpClass
eventq_index=0
opClass=SimdFloatCvt

[system.cpu_cluster.cpus.executeFuncUnits.funcUnits4.opClasses.opClasses24]
type=MinorOpClass
eventq_index=0
opClass=SimdFloatDiv

[system.cpu_cluster.cpus.executeFuncUnits.funcUnits4.opClasses.opClasses25]
type=MinorOpClass
eventq_index=0
opClass=SimdFloatMisc

[system.cpu_cluster.cpus.executeFuncUnits.funcUnits4.opClasses.opClasses26]
type=MinorOpClass
eventq_index=0
opClass=SimdFloatMult

[system.cpu_cluster.cpus.executeFuncUnits.funcUnits4.opClasses.opClasses27]
type=MinorOpClass
eventq_index=0
opClass=SimdFloatMultAcc

[system.cpu_cluster.cpus.executeFuncUnits.funcUnits4.opClasses.opClasses28]
type=MinorOpClass
eventq_index=0
opClass=SimdFloatSqrt

[system.cpu_cluster.cpus.executeFuncUnits.funcUnits4.opClasses.opClasses29]
type=MinorOpClass
eventq_index=0
opClass=SimdReduceAdd

[system.cpu_cluster.cpus.executeFuncUnits.funcUnits4.opClasses.opClasses30]
type=MinorOpClass
eventq_index=0
opClass=SimdReduceAlu

[system.cpu_cluster.cpus.executeFuncUnits.funcUnits4.opClasses.opClasses31]
type=MinorOpClass
eventq_index=0
opClass=SimdReduceCmp

[system.cpu_cluster.cpus.executeFuncUnits.funcUnits4.opClasses.opClasses32]
type=MinorOpClass
eventq_index=0
opClass=SimdFloatReduceAdd

[system.cpu_cluster.cpus.executeFuncUnits.funcUnits4.opClasses.opClasses33]
type=MinorOpClass
eventq_index=0
opClass=SimdFloatReduceCmp

[system.cpu_cluster.cpus.executeFuncUnits.funcUnits4.opClasses.opClasses34]
type=MinorOpClass
eventq_index=0
opClass=SimdAes

[system.cpu_cluster.cpus.executeFuncUnits.funcUnits4.opClasses.opClasses35]
type=MinorOpClass
eventq_index=0
opClass=SimdAesMix

[system.cpu_cluster.cpus.executeFuncUnits.funcUnits4.opClasses.opClasses36]
type=MinorOpClass
eventq_index=0
opClass=SimdSha1Hash

[system.cpu_cluster.cpus.executeFuncUnits.funcUnits4.opClasses.opClasses37]
type=MinorOpClass
eventq_index=0
opClass=SimdSha1Hash2

[system.cpu_cluster.cpus.executeFuncUnits.funcUnits4.opClasses.opClasses38]
type=MinorOpClass
eventq_index=0
opClass=SimdSha256Hash

[system.cpu_cluster.cpus.executeFuncUnits.funcUnits4.opClasses.opClasses39]
type=MinorOpClass
eventq_index=0
opClass=SimdSha256Hash2

[system.cpu_cluster.cpus.executeFuncUnits.funcUnits4.opClasses.opClasses40]
type=MinorOpClass
eventq_index=0
opClass=SimdShaSigma2

[system.cpu_cluster.cpus.executeFuncUnits.funcUnits4.opClasses.opClasses41]
type=MinorOpClass
eventq_index=0
opClass=SimdShaSigma3

[system.cpu_cluster.cpus.executeFuncUnits.funcUnits4.opList0]
type=OpDesc
eventq_index=0
opClass=FloatAdd
opLat=8
pipelined=true

[system.cpu_cluster.cpus.executeFuncUnits.funcUnits4.opList1]
type=OpDesc
eventq_index=0
opClass=FloatCmp
opLat=6
pipelined=true

[system.cpu_cluster.cpus.executeFuncUnits.funcUnits4.opList2]
type=OpDesc
eventq_index=0
opClass=FloatCvt
opLat=6
pipelined=true

[system.cpu_cluster.cpus.executeFuncUnits.funcUnits4.opList3]
type=OpDesc
eventq_index=0
opClass=FloatDiv
opLat=15
pipelined=false

[system.cpu_cluster.cpus.executeFuncUnits.funcUnits4.opList4]
type=OpDesc
eventq_index=0
opClass=FloatSqrt
opLat=33
pipelined=true

[system.cpu_cluster.cpus.executeFuncUnits.funcUnits4.opList5]
type=OpDesc
eventq_index=0
opClass=FloatMult
opLat=6
pipelined=true

[system.cpu_cluster.cpus.executeFuncUnits.funcUnits4.timings]
type=MinorFUTiming
children=opClasses
description=FloatSimd
eventq_index=0
extraAssumedLat=0
extraCommitLat=0
extraCommitLatExpr=Null
mask=0
match=0
opClasses=system.cpu_cluster.cpus.executeFuncUnits.funcUnits4.timings.opClasses
srcRegsRelativeLats=2
suppress=false

[system.cpu_cluster.cpus.executeFuncUnits.funcUnits4.timings.opClasses]
type=MinorOpClassSet
eventq_index=0
opClasses=

[system.cpu_cluster.cpus.executeFuncUnits.funcUnits5]
type=MinorFU
children=opClasses opList0 opList1 timings
cantForwardFromFUIndices=
eventq_index=0
issueLat=1
opClasses=system.cpu_cluster.cpus.executeFuncUnits.funcUnits5.opClasses
opLat=1
timings=system.cpu_cluster.cpus.executeFuncUnits.funcUnits5.timings

[system.cpu_cluster.cpus.executeFuncUnits.funcUnits5.opClasses]
type=MinorOpClassSet
children=opClasses0 opClasses1 opClasses2 opClasses3
eventq_index=0
opClasses=system.cpu_cluster.cpus.executeFuncUnits.funcUnits5.opClasses.opClasses0 system.cpu_cluster.cpus.executeFuncUnits.funcUnits5.opClasses.opClasses1 system.cpu_cluster.cpus.executeFuncUnits.funcUnits5.opClasses.opClasses2 system.cpu_cluster.cpus.executeFuncUnits.funcUnits5.opClasses.opClasses3

[system.cpu_cluster.cpus.executeFuncUnits.funcUnits5.opClasses.opClasses0]
type=MinorOpClass
eventq_index=0
opClass=MemRead

[system.cpu_cluster.cpus.executeFuncUnits.funcUnits5.opClasses.opClasses1]
type=MinorOpClass
eventq_index=0
opClass=MemWrite

[system.cpu_cluster.cpus.executeFuncUnits.funcUnits5.opClasses.opClasses2]
type=MinorOpClass
eventq_index=0
opClass=FloatMemRead

[system.cpu_cluster.cpus.executeFuncUnits.funcUnits5.opClasses.opClasses3]
type=MinorOpClass
eventq_index=0
opClass=FloatMemWrite

[system.cpu_cluster.cpus.executeFuncUnits.funcUnits5.opList0]
type=OpDesc
eventq_index=0
opClass=MemRead
opLat=1
pipelined=true

[system.cpu_cluster.cpus.executeFuncUnits.funcUnits5.opList1]
type=OpDesc
eventq_index=0
opClass=MemWrite
opLat=1
pipelined=true

[system.cpu_cluster.cpus.executeFuncUnits.funcUnits5.timings]
type=MinorFUTiming
children=opClasses
description=Mem
eventq_index=0
extraAssumedLat=2
extraCommitLat=0
extraCommitLatExpr=Null
mask=0
match=0
opClasses=system.cpu_cluster.cpus.executeFuncUnits.funcUnits5.timings.opClasses
srcRegsRelativeLats=1
suppress=false

[system.cpu_cluster.cpus.executeFuncUnits.funcUnits5.timings.opClasses]
type=MinorOpClassSet
eventq_index=0
opClasses=

[system.cpu_cluster.cpus.executeFuncUnits.funcUnits6]
type=MinorFU
children=opClasses opList0 opList1
cantForwardFromFUIndices=
eventq_index=0
issueLat=1
opClasses=system.cpu_cluster.cpus.executeFuncUnits.funcUnits6.opClasses
opLat=1
timings=

[system.cpu_cluster.cpus.executeFuncUnits.funcUnits6.opClasses]
type=MinorOpClassSet
children=opClasses0 opClasses1
eventq_index=0
opClasses=system.cpu_cluster.cpus.executeFuncUnits.funcUnits6.opClasses.opClasses0 system.cpu_cluster.cpus.executeFuncUnits.funcUnits6.opClasses.opClasses1

[system.cpu_cluster.cpus.executeFuncUnits.funcUnits6.opClasses.opClasses0]
type=MinorOpClass
eventq_index=0
opClass=IprAccess

[system.cpu_cluster.cpus.executeFuncUnits.funcUnits6.opClasses.opClasses1]
type=MinorOpClass
eventq_index=0
opClass=InstPrefetch

[system.cpu_cluster.cpus.executeFuncUnits.funcUnits6.opList0]
type=OpDesc
eventq_index=0
opClass=IprAccess
opLat=1
pipelined=true

[system.cpu_cluster.cpus.executeFuncUnits.funcUnits6.opList1]
type=OpDesc
eventq_index=0
opClass=InstPrefetch
opLat=1
pipelined=true

[system.cpu_cluster.cpus.icache]
type=Cache
children=replacement_policy tags
addr_ranges=0:18446744073709551615
assoc=2
clk_domain=system.cpu_cluster.clk_domain
clusivity=mostly_incl
compressor=Null
data_latency=2
default_p_state=UNDEFINED
demand_mshr_reserve=1
eventq_index=0
is_read_only=true
max_miss_count=0
mshrs=2
p_state_clk_gate_bins=20
p_state_clk_gate_max=1000000000000
p_state_clk_gate_min=1000
power_model=
prefetch_on_access=false
prefetcher=Null
replacement_policy=system.cpu_cluster.cpus.icache.replacement_policy
response_latency=2
sequential_access=false
size=32768
system=system
tag_latency=2
tags=system.cpu_cluster.cpus.icache.tags
tgts_per_mshr=20
warmup_percentage=0
write_allocator=Null
write_buffers=8
writeback_clean=false
cpu_side=system.cpu_cluster.cpus.icache_port
mem_side=system.membus.slave[1]

[system.cpu_cluster.cpus.icache.replacement_policy]
type=LRURP
eventq_index=0

[system.cpu_cluster.cpus.icache.tags]
type=BaseSetAssoc
children=indexing_policy
assoc=2
block_size=64
clk_domain=system.cpu_cluster.clk_domain
default_p_state=UNDEFINED
entry_size=64
eventq_index=0
indexing_policy=system.cpu_cluster.cpus.icache.tags.indexing_policy
p_state_clk_gate_bins=20
p_state_clk_gate_max=1000000000000
p_state_clk_gate_min=1000
power_model=
replacement_policy=system.cpu_cluster.cpus.icache.replacement_policy
sequential_access=false
size=32768
system=system
tag_latency=2
warmup_percentage=0

[system.cpu_cluster.cpus.icache.tags.indexing_policy]
type=SetAssociative
assoc=2
entry_size=64
eventq_index=0
size=32768

[system.cpu_cluster.cpus.interrupts]
type=ArmInterrupts
eventq_index=0

[system.cpu_cluster.cpus.isa]
type=ArmISA
decoderFlavour=Generic
eventq_index=0
fpsid=1090793632
id_aa64afr0_el1=0
id_aa64afr1_el1=0
id_aa64dfr0_el1=1052678
id_aa64dfr1_el1=0
id_aa64isar0_el1=0
id_aa64isar1_el1=0
id_aa64mmfr0_el1=15728642
id_aa64mmfr1_el1=1052672
id_aa64mmfr2_el1=0
id_isar0=34607377
id_isar1=34677009
id_isar2=555950401
id_isar3=17899825
id_isar4=268501314
id_isar5=0
id_mmfr0=270536963
id_mmfr1=0
id_mmfr2=19070976
id_mmfr3=34611729
impdef_nop=false
midr=0
pmu=Null
sve_vl_se=1
system=system

[system.cpu_cluster.cpus.itb]
type=ArmTLB
children=stage2_mmu walker
eventq_index=0
is_stage2=false
size=64
sys=system
walker=system.cpu_cluster.cpus.itb.walker

[system.cpu_cluster.cpus.itb.stage2_mmu]
type=ArmStage2MMU
children=stage2_tlb
eventq_index=0
stage2_tlb=system.cpu_cluster.cpus.itb.stage2_mmu.stage2_tlb
sys=system
tlb=system.cpu_cluster.cpus.itb

[system.cpu_cluster.cpus.itb.stage2_mmu.stage2_tlb]
type=ArmTLB
children=walker
eventq_index=0
is_stage2=true
size=32
sys=system
walker=system.cpu_cluster.cpus.itb.stage2_mmu.stage2_tlb.walker

[system.cpu_cluster.cpus.itb.stage2_mmu.stage2_tlb.walker]
type=ArmTableWalker
clk_domain=system.cpu_cluster.clk_domain
default_p_state=UNDEFINED
eventq_index=0
is_stage2=true
num_squash_per_cycle=2
p_state_clk_gate_bins=20
p_state_clk_gate_max=1000000000000
p_state_clk_gate_min=1000
power_model=
sys=system

[system.cpu_cluster.cpus.itb.walker]
type=ArmTableWalker
clk_domain=system.cpu_cluster.clk_domain
default_p_state=UNDEFINED
eventq_index=0
is_stage2=false
num_squash_per_cycle=2
p_state_clk_gate_bins=20
p_state_clk_gate_max=1000000000000
p_state_clk_gate_min=1000
power_model=
sys=system
port=system.membus.slave[3]

[system.cpu_cluster.cpus.tracer]
type=ExeTracer
eventq_index=0

[system.cpu_cluster.cpus.workload]
type=Process
cmd=/u/sgupta45/gem5-SALAM/benchmarks/scheduler_cpp/main LEDF resource_configs/resources_10.cfg dags/deblur_5.cfg dags/deblur_5.cfg dags/deblur_5.cfg dags/deblur_5.cfg dags/deblur_5.cfg dags/deblur_5.cfg dags/deblur_5.cfg dags/deblur_5.cfg dags/deblur_5.cfg dags/deblur_5.cfg dags/deblur_5.cfg dags/deblur_5.cfg dags/deblur_5.cfg dags/deblur_5.cfg dags/deblur_5.cfg dags/deblur_5.cfg dags/deblur_5.cfg dags/deblur_5.cfg dags/deblur_5.cfg dags/deblur_5.cfg dags/deblur_5.cfg dags/deblur_5.cfg dags/deblur_5.cfg dags/deblur_5.cfg dags/deblur_5.cfg dags/deblur_5.cfg dags/deblur_5.cfg dags/deblur_5.cfg dags/deblur_5.cfg dags/deblur_5.cfg dags/deblur_5.cfg dags/deblur_5.cfg dags/deblur_5.cfg dags/deblur_5.cfg dags/deblur_5.cfg dags/deblur_5.cfg dags/deblur_5.cfg dags/deblur_5.cfg dags/deblur_5.cfg dags/deblur_5.cfg dags/deblur_5.cfg dags/deblur_5.cfg dags/deblur_5.cfg dags/deblur_5.cfg dags/deblur_5.cfg dags/deblur_5.cfg dags/deblur_5.cfg dags/deblur_5.cfg dags/deblur_5.cfg dags/deblur_5.cfg
cwd=/localdisk/sgupta45/gem5-SALAM
drivers=
egid=100
env=
errout=cerr
euid=100
eventq_index=0
executable=/u/sgupta45/gem5-SALAM/benchmarks/scheduler_cpp/main
gid=100
input=cin
kvmInSE=false
maxStackSize=67108864
output=cout
pgid=100
pid=100
ppid=0
release=5.1.0
simpoint=0
system=system
uid=100
useArchPT=false

[system.cpu_cluster.voltage_domain]
type=VoltageDomain